
 ANSYS Mechanical Enterprise                       


 *------------------------------------------------------------------*
 |                                                                  |
 |   W E L C O M E   T O   T H E   A N S Y S (R)  P R O G R A M     |
 |                                                                  |
 *------------------------------------------------------------------*




 ***************************************************************
 *            ANSYS 2020 R2          LEGAL NOTICES             *
 ***************************************************************
 *                                                             *
 * Copyright 1971-2020 ANSYS, Inc.  All rights reserved.       *
 * Unauthorized use, distribution or duplication is            *
 * prohibited.                                                 *
 *                                                             *
 * Ansys is a registered trademark of ANSYS, Inc. or its       *
 * subsidiaries in the United States or other countries.       *
 * See the ANSYS, Inc. online documentation or the ANSYS, Inc. *
 * documentation CD or online help for the complete Legal      *
 * Notice.                                                     *
 *                                                             *
 ***************************************************************
 *                                                             *
 * THIS ANSYS SOFTWARE PRODUCT AND PROGRAM DOCUMENTATION       *
 * INCLUDE TRADE SECRETS AND CONFIDENTIAL AND PROPRIETARY      *
 * PRODUCTS OF ANSYS, INC., ITS SUBSIDIARIES, OR LICENSORS.    *
 * The software products and documentation are furnished by    *
 * ANSYS, Inc. or its subsidiaries under a software license    *
 * agreement that contains provisions concerning               *
 * non-disclosure, copying, length and nature of use,          *
 * compliance with exporting laws, warranties, disclaimers,    *
 * limitations of liability, and remedies, and other           *
 * provisions.  The software products and documentation may be *
 * used, disclosed, transferred, or copied only in accordance  *
 * with the terms and conditions of that software license      *
 * agreement.                                                  *
 *                                                             *
 * ANSYS, Inc. is a UL registered                              *
 * ISO 9001:2015 company.                                      *
 *                                                             *
 ***************************************************************
 *                                                             *
 * This product is subject to U.S. laws governing export and   *
 * re-export.                                                  *
 *                                                             *
 * For U.S. Government users, except as specifically granted   *
 * by the ANSYS, Inc. software license agreement, the use,     *
 * duplication, or disclosure by the United States Government  *
 * is subject to restrictions stated in the ANSYS, Inc.        *
 * software license agreement and FAR 12.212 (for non-DOD      *
 * licenses).                                                  *
 *                                                             *
 ***************************************************************

 2020 R2 
     
 Point Releases and Patches installed:   
     
 ANSYS, Inc. Products 2020 R2
 SpaceClaim 2020 R2  
 Discovery 2020 R2   
 AIM 2020 R2 
 Live (includes SpaceClaim) 2020 R2  
 Autodyn 2020 R2 
 CFD-Post only 2020 R2   
 CFX (includes CFD-Post) 2020 R2 
 Chemkin 2020 R2 
 FENSAP-ICE 2020 R2  
 Fluent (includes CFD-Post) 2020 R2  
 Forte (includes EnSight) 2020 R2
 Polyflow (includes CFD-Post) 2020 R2
 TurboGrid 2020 R2   
 ICEM CFD 2020 R2
 Aqwa 2020 R2
 Customization Files for User Programmable Features 2020 R2  
 Mechanical Products 2020 R2 
 Additive 2020 R2
 Icepak (includes CFD-Post) 2020 R2  
 Viewer 2020 R2  
 ACIS Geometry Interface 2020 R2 
 AutoCAD Geometry Interface 2020 R2  
 Catia, Version 4 Geometry Interface 2020 R2 
 Catia, Version 5 Geometry Interface 2020 R2 
 Catia, Version 6 Geometry Interface 2020 R2 
 Creo Elements/Direct Modeling Geometry Interface 2020 R2
 Creo Parametric Geometry Interface 2020 R2  
 Inventor Geometry Interface 2020 R2 
 JTOpen Geometry Interface 2020 R2   
 NX Geometry Interface 2020 R2   
 Parasolid Geometry Interface  2020 R2   
 Solid Edge Geometry Interface 2020 R2   
 SOLIDWORKS Geometry Interface 2020 R2   
 ANSYS, Inc. License Manager 2020 R2 


          *****  ANSYS COMMAND LINE ARGUMENTS  *****
  BATCH MODE REQUESTED (-b)    = LIST
  INPUT FILE COPY MODE (-c)    = COPY
  INPUT FILE NAME              = D:\SOMP_Ansys\ansys_meshdata.txt
  OUTPUT FILE NAME             = D:\SOMP_Ansys\python\meshdata.out

 RELEASE= 2020 R2              BUILD= 20.2      UP20200601   VERSION=WINDOWS x64 
 CURRENT JOBNAME=file0  11:18:30  JUN 12, 2023 CP=      0.344


 RUN SETUP PROCEDURE FROM FILE= C:\Program Files\ANSYS Inc\v202\ANSYS\apdl\start.ans

 /INPUT FILE= C:\Program Files\ANSYS Inc\v202\ANSYS\apdl\start.ans  LINE=       0

 ***** END OF INPUT ENCOUNTERED *****

 PURGE ALL SOLUTION AND POST DATA
 SAVE ALL MODEL DATA

 ALL CURRENT ANSYS DATA WRITTEN TO FILE NAME= file.db
  FOR POSSIBLE RESUME FROM THIS POINT


 NUMBER OF WARNING MESSAGES ENCOUNTERED=          0
 NUMBER OF ERROR   MESSAGES ENCOUNTERED=          0

+--------- D I S T R I B U T E D   A N S Y S   S T A T I S T I C S ------------+

Release: 2020 R2            Build: 20.2       Update: UP20200601   Platform: WINDOWS x64 
Date Run: 06/12/2023   Time: 11:18     Process ID: 8020
Operating System: Windows 10  (Build: 19042)

Processor Model: Intel(R) Core(TM) i7-6700 CPU @ 3.40GHz

Compiler: Intel(R) FORTRAN Compiler Version 19.0.0  (Build: 20190206)
          Intel(R) C/C++ Compiler Version 19.0.0  (Build: 20190206)
          Intel(R) Math Kernel Library Version 2020.0.0 Product Build 20191125

Number of machines requested            :    1
Total number of cores available         :    8
Number of physical cores available      :    4
Number of processes requested           :    2
Number of threads per process requested :    1
Total number of cores requested         :    2 (Distributed Memory Parallel)               
MPI Type: INTELMPI
MPI Version: Intel(R) MPI Library 2018 Update 3 for Windows* OS


GPU Acceleration: Not Requested

Job Name: file0
Input File: ansys_meshdata.txt

  Core                Machine Name   Working Directory
 -----------------------------------------------------
     0   PCB38-131-03.ad.isae-supa   D:\SOMP_Ansys
     1   PCB38-131-03.ad.isae-supa   D:\SOMP_Ansys
 
Latency time from master to core     1 =    2.123 microseconds
 
Communication speed from master to core     1 =  6337.44 MB/sec

Total CPU time for main thread                    :        0.5 seconds
Total CPU time summed for all threads             :        0.4 seconds

Elapsed time spent obtaining a license            :        0.8 seconds
Elapsed time spent pre-processing model (/PREP7)  :        0.0 seconds
Elapsed time spent solution - preprocessing       :        0.0 seconds
Elapsed time spent computing solution             :        0.0 seconds
Elapsed time spent solution - postprocessing      :        0.0 seconds
Elapsed time spent post-processing model (/POST1) :        0.0 seconds
 

Maximum total memory used                         :        8.0 MB
Maximum total memory allocated                    :     3136.0 MB
Total physical memory available                   :         16 GB

Total amount of I/O written to disk               :        0.0 GB
Total amount of I/O read from disk                :        0.0 GB

+------ E N D   D I S T R I B U T E D   A N S Y S   S T A T I S T I C S -------+


 *---------------------------------------------------------------------------*
 |                                                                           |
 |                       DISTRIBUTED ANSYS RUN COMPLETED                     |
 |                                                                           |
 |---------------------------------------------------------------------------|
 |                                                                           |
 | Ansys 2020 R2               Build 20.2         UP20200601     WINDOWS x64 |
 |                                                                           |
 |---------------------------------------------------------------------------|
 |                                                                           |
 | Database Requested(-db)  1024 MB    Scratch Memory Requested      1024 MB |
 | Maximum Database Used       1 MB    Maximum Scratch Memory Used      2 MB |
 |                                                                           |
 |---------------------------------------------------------------------------|
 |                                                                           |
 |        CP Time      (sec) =          0.438       Time  =  11:18:30        |
 |        Elapsed Time (sec) =          2.000       Date  =  06/12/2023      |
 |                                                                           |
 *---------------------------------------------------------------------------*
